65947
  -OEChem-11302422263D

 52 56  0     1  0  0  0  0  0999 V2000
    4.7106    3.0769   -0.1651 S   0  0  0  0  0  0  0  0  0  0  0  0
    0.4375   -3.4431    0.1297 F   0  0  0  0  0  0  0  0  0  0  0  0
   -5.6682    1.0849    0.7613 O   0  0  0  0  0  0  0  0  0  0  0  0
    5.3161   -2.0712   -0.2319 O   0  0  0  0  0  0  0  0  0  0  0  0
   -7.2084    1.4794   -0.9391 O   0  0  0  0  0  0  0  0  0  0  0  0
    7.3360   -0.5209   -1.0156 O   0  0  0  0  0  0  0  0  0  0  0  0
    7.3899    1.4580    0.1294 O   0  0  0  0  0  0  0  0  0  0  0  0
   -6.5469    3.1809    0.4504 O   0  0  0  0  0  0  0  0  0  0  0  0
   -1.0012   -1.0773    0.2474 N   0  0  0  0  0  0  0  0  0  0  0  0
   -3.8231   -0.9472    0.6705 N   0  0  0  0  0  0  0  0  0  0  0  0
    3.2247    1.3354   -0.0583 N   0  0  0  0  0  0  0  0  0  0  0  0
   -1.7801    0.0234   -0.3281 C   0  0  0  0  0  0  0  0  0  0  0  0
   -1.6024   -1.7401    1.4116 C   0  0  0  0  0  0  0  0  0  0  0  0
   -3.2303   -0.4081   -0.5594 C   0  0  0  0  0  0  0  0  0  0  0  0
   -3.0578   -2.1154    1.1234 C   0  0  0  0  0  0  0  0  0  0  0  0
    0.3943   -1.0685    0.1437 C   0  0  0  0  0  0  0  0  0  0  0  0
    2.4681    0.1607   -0.0061 C   0  0  0  0  0  0  0  0  0  0  0  0
    2.9386    2.7172   -0.0316 C   0  0  1  0  0  0  0  0  0  0  0  0
    4.5192    1.3632   -0.1566 C   0  0  0  0  0  0  0  0  0  0  0  0
   -5.2238   -1.3056    0.4508 C   0  0  0  0  0  0  0  0  0  0  0  0
    1.0768    0.1486    0.0982 C   0  0  0  0  0  0  0  0  0  0  0  0
    3.1715   -1.0640   -0.0643 C   0  0  0  0  0  0  0  0  0  0  0  0
    1.0956   -2.2754    0.0858 C   0  0  0  0  0  0  0  0  0  0  0  0
    5.3408    0.3061   -0.2230 C   0  0  0  0  0  0  0  0  0  0  0  0
    2.4870   -2.2790   -0.0182 C   0  0  0  0  0  0  0  0  0  0  0  0
    4.6673   -1.0333   -0.1775 C   0  0  0  0  0  0  0  0  0  0  0  0
    2.3900    3.1571    1.3029 C   0  0  0  0  0  0  0  0  0  0  0  0
   -5.9324   -0.0631    0.0414 C   0  0  0  0  0  0  0  0  0  0  0  0
   -6.8031    0.1599   -0.9198 C   0  0  0  0  0  0  0  0  0  0  0  0
    6.7810    0.5044   -0.3315 C   0  0  0  0  0  0  0  0  0  0  0  0
   -7.3873   -0.7475   -1.9366 C   0  0  0  0  0  0  0  0  0  0  0  0
   -6.4798    2.0037    0.1163 C   0  0  0  0  0  0  0  0  0  0  0  0
   -1.7586    0.8899    0.3454 H   0  0  0  0  0  0  0  0  0  0  0  0
   -1.3598    0.3314   -1.2939 H   0  0  0  0  0  0  0  0  0  0  0  0
   -1.0650   -2.6507    1.6965 H   0  0  0  0  0  0  0  0  0  0  0  0
   -1.5546   -1.0608    2.2730 H   0  0  0  0  0  0  0  0  0  0  0  0
   -3.7494    0.4799   -0.9348 H   0  0  0  0  0  0  0  0  0  0  0  0
   -3.2607   -1.1594   -1.3610 H   0  0  0  0  0  0  0  0  0  0  0  0
   -3.0881   -2.9157    0.3716 H   0  0  0  0  0  0  0  0  0  0  0  0
   -3.4970   -2.5161    2.0450 H   0  0  0  0  0  0  0  0  0  0  0  0
    2.3425    3.0434   -0.8911 H   0  0  0  0  0  0  0  0  0  0  0  0
   -5.3255   -2.0978   -0.2998 H   0  0  0  0  0  0  0  0  0  0  0  0
   -5.6698   -1.6676    1.3848 H   0  0  0  0  0  0  0  0  0  0  0  0
    0.5425    1.0922    0.1440 H   0  0  0  0  0  0  0  0  0  0  0  0
    3.0131   -3.2279   -0.0620 H   0  0  0  0  0  0  0  0  0  0  0  0
    2.9523    2.7564    2.1553 H   0  0  0  0  0  0  0  0  0  0  0  0
    2.3993    4.2503    1.3842 H   0  0  0  0  0  0  0  0  0  0  0  0
    1.3472    2.8472    1.4250 H   0  0  0  0  0  0  0  0  0  0  0  0
   -7.0276   -1.7747   -1.8300 H   0  0  0  0  0  0  0  0  0  0  0  0
   -7.1304   -0.4034   -2.9433 H   0  0  0  0  0  0  0  0  0  0  0  0
   -8.4781   -0.7641   -1.8470 H   0  0  0  0  0  0  0  0  0  0  0  0
    8.3073   -0.4191   -1.1074 H   0  0  0  0  0  0  0  0  0  0  0  0
  1 18  1  0  0  0  0
  1 19  1  0  0  0  0
  2 23  1  0  0  0  0
  3 28  1  0  0  0  0
  3 32  1  0  0  0  0
  4 26  2  0  0  0  0
  5 29  1  0  0  0  0
  5 32  1  0  0  0  0
  6 30  1  0  0  0  0
  6 52  1  0  0  0  0
  7 30  2  0  0  0  0
  8 32  2  0  0  0  0
  9 12  1  0  0  0  0
  9 13  1  0  0  0  0
  9 16  1  0  0  0  0
 10 14  1  0  0  0  0
 10 15  1  0  0  0  0
 10 20  1  0  0  0  0
 11 17  1  0  0  0  0
 11 18  1  0  0  0  0
 11 19  1  0  0  0  0
 12 14  1  0  0  0  0
 12 33  1  0  0  0  0
 12 34  1  0  0  0  0
 13 15  1  0  0  0  0
 13 35  1  0  0  0  0
 13 36  1  0  0  0  0
 14 37  1  0  0  0  0
 14 38  1  0  0  0  0
 15 39  1  0  0  0  0
 15 40  1  0  0  0  0
 16 21  1  0  0  0  0
 16 23  2  0  0  0  0
 17 21  2  0  0  0  0
 17 22  1  0  0  0  0
 18 27  1  0  0  0  0
 18 41  1  0  0  0  0
 19 24  2  0  0  0  0
 20 28  1  0  0  0  0
 20 42  1  0  0  0  0
 20 43  1  0  0  0  0
 21 44  1  0  0  0  0
 22 25  2  0  0  0  0
 22 26  1  0  0  0  0
 23 25  1  0  0  0  0
 24 26  1  0  0  0  0
 24 30  1  0  0  0  0
 25 45  1  0  0  0  0
 27 46  1  0  0  0  0
 27 47  1  0  0  0  0
 27 48  1  0  0  0  0
 28 29  2  0  0  0  0
 29 31  1  0  0  0  0
 31 49  1  0  0  0  0
 31 50  1  0  0  0  0
 31 51  1  0  0  0  0
M  END
> <PUBCHEM_COMPOUND_CID>
65947

> <PUBCHEM_CONFORMER_RMSD>
0.8

> <PUBCHEM_CONFORMER_DIVERSEORDER>
1
32
22
92
52
86
19
62
79
77
50
76
13
105
101
37
75
73
78
65
109
71
63
57
85
10
108
15
82
67
68
87
18
20
44
8
107
47
110
64
98
33
30
11
72
31
84
66
17
80
12
56
102
97
29
99
16
103
49
53
81
91
23
83
43
100
36
41
28
106
104
69
42
21
90
60
27
54
94
70
24
45
58
88
9
93
95
96
38
46
48
40
61
35
51
26
59
74
34
7
25
5
3
39
89
55
4
6
2
14

> <PUBCHEM_MMFF94_PARTIAL_CHARGES>
34
1 -0.29
10 -0.81
11 -0.44
12 0.37
13 0.37
14 0.27
15 0.27
16 0.1
17 0.1
18 0.46
19 0.14
2 -0.19
20 0.41
21 -0.15
22 0.09
23 0.19
24 0.06
25 -0.15
26 0.47
28 -0.06
29 -0.06
3 -0.23
30 0.71
31 0.14
32 0.87
4 -0.57
44 0.15
45 0.15
5 -0.23
52 0.5
6 -0.65
7 -0.57
8 -0.57
9 -0.84

> <PUBCHEM_EFFECTIVE_ROTOR_COUNT>
5.6

> <PUBCHEM_PHARMACOPHORE_FEATURES>
12
1 10 cation
1 11 cation
1 4 acceptor
1 6 acceptor
1 7 acceptor
1 9 cation
3 6 7 30 anion
4 1 11 18 19 rings
5 3 5 28 29 32 rings
6 11 17 19 22 24 26 rings
6 16 17 21 22 23 25 rings
6 9 10 12 13 14 15 rings

> <PUBCHEM_HEAVY_ATOM_COUNT>
32

> <PUBCHEM_ATOM_DEF_STEREO_COUNT>
0

> <PUBCHEM_ATOM_UDEF_STEREO_COUNT>
1

> <PUBCHEM_BOND_DEF_STEREO_COUNT>
0

> <PUBCHEM_BOND_UDEF_STEREO_COUNT>
0

> <PUBCHEM_ISOTOPIC_ATOM_COUNT>
0

> <PUBCHEM_COMPONENT_COUNT>
1

> <PUBCHEM_CACTVS_TAUTO_COUNT>
1

> <PUBCHEM_CONFORMER_ID>
0001019B00000001

> <PUBCHEM_MMFF94_ENERGY>
96.6473

> <PUBCHEM_FEATURE_SELFOVERLAP>
61.216

> <PUBCHEM_SHAPE_FINGERPRINT>
10411042 1 17905607697478838186
10595046 47 18341607102206392735
10763959 59 18261395580611328708
10835480 77 18335138691736205003
11089746 13 18412261727516918175
11456790 92 18259982639803257144
12838862 33 18341602764289267896
13402501 40 18334012808803418980
13878862 14 18337374020149681620
14117953 113 18271815610476577254
14556957 393 16916800582195653025
14931854 50 18200890551447529868
15064981 113 17203345406958849140
15142383 8 18113898282574335912
15183329 4 18411136931132003121
15289351 153 18410286996006484048
1577012 14 18341892953379822329
16087824 20 18410015403992802860
17780758 139 11169909477836171799
18335252 114 18412821383072155206
19611394 137 17823994531456168259
20715895 44 18410294739864115096
21033648 144 18114175308165700303
21033648 29 18263073482921676112
21133410 127 17540809933691350797
21298829 104 18411985740965372297
21792934 111 18412254023041785418
22122407 14 18342185466195975089
221357 26 18412262826997007972
23559900 14 18335701684422755457
23576562 1 18269274745349672294
255183 451 17913496732068008342
2838139 119 18412262835771331381
335352 9 18411421735451835526
350125 39 18408323276623761340
4073 2 17968664924852691570
4144715 1 17751371800408593097
4169191 19 18334577936679708389
504579 68 18202270417365804717
5104073 3 17966971617222452731
58902169 19 17988636406814507175
59755656 215 18335140877810917580

> <PUBCHEM_SHAPE_MULTIPOLES>
604.96
21.74
3.42
1.03
17.2
1.37
0.07
9.86
6.09
-1.12
-0.78
1.32
-0.06
0.54

> <PUBCHEM_SHAPE_SELFOVERLAP>
1327.085

> <PUBCHEM_SHAPE_VOLUME>
332.2

> <PUBCHEM_COORDINATE_TYPE>
2
5
10

$$$$
