60464
  -OEChem-11302422233D

 50 53  0     1  0  0  0  0  0999 V2000
    0.5941   -2.1391    0.7648 F   0  0  0  0  0  0  0  0  0  0  0  0
    2.1389    2.2568    0.0477 F   0  0  0  0  0  0  0  0  0  0  0  0
   -2.9128    2.5862   -0.4114 O   0  0  0  0  0  0  0  0  0  0  0  0
   -5.2757    1.7831   -1.0969 O   0  0  0  0  0  0  0  0  0  0  0  0
   -6.0706    0.1645    0.3099 O   0  0  0  0  0  0  0  0  0  0  0  0
   -2.1301   -1.3323    0.3944 N   0  0  0  0  0  0  0  0  0  0  0  0
    2.6677   -0.3892    0.5916 N   0  0  0  0  0  0  0  0  0  0  0  0
    5.2214    0.0533   -0.5669 N   0  0  0  0  0  0  0  0  0  0  0  0
   -0.3740    3.2088   -0.3335 N   0  0  0  0  0  0  0  0  0  0  0  0
   -1.9668   -2.7739    0.6828 C   0  0  0  0  0  0  0  0  0  0  0  0
   -1.0586   -3.6208   -0.1453 C   0  0  0  0  0  0  0  0  0  0  0  0
   -2.5455   -3.8064   -0.2266 C   0  0  0  0  0  0  0  0  0  0  0  0
   -1.0246   -0.4384    0.3114 C   0  0  0  0  0  0  0  0  0  0  0  0
    4.2037   -0.7358   -1.2783 C   0  0  2  0  0  0  0  0  0  0  0  0
    4.6120    1.0683    0.3067 C   0  0  1  0  0  0  0  0  0  0  0  0
    3.2424   -1.4157   -0.2848 C   0  0  0  0  0  0  0  0  0  0  0  0
    3.6675    0.3987    1.3161 C   0  0  0  0  0  0  0  0  0  0  0  0
    1.3623    0.0504    0.4066 C   0  0  0  0  0  0  0  0  0  0  0  0
   -3.4111   -0.8524    0.2018 C   0  0  0  0  0  0  0  0  0  0  0  0
   -1.2532    0.9267    0.0333 C   0  0  0  0  0  0  0  0  0  0  0  0
    0.3031   -0.8572    0.4961 C   0  0  0  0  0  0  0  0  0  0  0  0
   -0.1913    1.8351   -0.0560 C   0  0  0  0  0  0  0  0  0  0  0  0
   -3.7372    0.4181   -0.0659 C   0  0  0  0  0  0  0  0  0  0  0  0
    1.1155    1.3924    0.1314 C   0  0  0  0  0  0  0  0  0  0  0  0
   -2.6423    1.4164   -0.1693 C   0  0  0  0  0  0  0  0  0  0  0  0
    4.9011   -1.7783   -2.1492 C   0  0  0  0  0  0  0  0  0  0  0  0
    5.7171    1.8337    1.0305 C   0  0  0  0  0  0  0  0  0  0  0  0
   -5.1532    0.7469   -0.2407 C   0  0  0  0  0  0  0  0  0  0  0  0
   -1.9987   -2.9793    1.7481 H   0  0  0  0  0  0  0  0  0  0  0  0
   -0.4885   -4.3968    0.3513 H   0  0  0  0  0  0  0  0  0  0  0  0
   -0.5866   -3.2173   -1.0335 H   0  0  0  0  0  0  0  0  0  0  0  0
   -3.0349   -3.4943   -1.1411 H   0  0  0  0  0  0  0  0  0  0  0  0
   -2.9681   -4.6964    0.2234 H   0  0  0  0  0  0  0  0  0  0  0  0
    3.6364   -0.0655   -1.9369 H   0  0  0  0  0  0  0  0  0  0  0  0
    4.1028    1.7818   -0.3428 H   0  0  0  0  0  0  0  0  0  0  0  0
    2.4703   -1.9662   -0.8356 H   0  0  0  0  0  0  0  0  0  0  0  0
    3.7776   -2.1506    0.3304 H   0  0  0  0  0  0  0  0  0  0  0  0
    4.2320   -0.2742    1.9758 H   0  0  0  0  0  0  0  0  0  0  0  0
    3.1999    1.1413    1.9744 H   0  0  0  0  0  0  0  0  0  0  0  0
   -4.1743   -1.6194    0.2941 H   0  0  0  0  0  0  0  0  0  0  0  0
    5.7990   -0.5721   -0.0043 H   0  0  0  0  0  0  0  0  0  0  0  0
    5.5744   -1.3002   -2.8693 H   0  0  0  0  0  0  0  0  0  0  0  0
    5.4911   -2.4787   -1.5473 H   0  0  0  0  0  0  0  0  0  0  0  0
    4.1664   -2.3596   -2.7168 H   0  0  0  0  0  0  0  0  0  0  0  0
    5.2901    2.6238    1.6575 H   0  0  0  0  0  0  0  0  0  0  0  0
    6.3101    1.1753    1.6752 H   0  0  0  0  0  0  0  0  0  0  0  0
    6.3987    2.3084    0.3159 H   0  0  0  0  0  0  0  0  0  0  0  0
   -1.2969    3.5926   -0.4770 H   0  0  0  0  0  0  0  0  0  0  0  0
    0.4311    3.8197   -0.3844 H   0  0  0  0  0  0  0  0  0  0  0  0
   -6.2132    2.0340   -1.2403 H   0  0  0  0  0  0  0  0  0  0  0  0
  1 21  1  0  0  0  0
  2 24  1  0  0  0  0
  3 25  2  0  0  0  0
  4 28  1  0  0  0  0
  4 50  1  0  0  0  0
  5 28  2  0  0  0  0
  6 10  1  0  0  0  0
  6 13  1  0  0  0  0
  6 19  1  0  0  0  0
  7 16  1  0  0  0  0
  7 17  1  0  0  0  0
  7 18  1  0  0  0  0
  8 14  1  0  0  0  0
  8 15  1  0  0  0  0
  8 41  1  0  0  0  0
  9 22  1  0  0  0  0
  9 48  1  0  0  0  0
  9 49  1  0  0  0  0
 10 11  1  0  0  0  0
 10 12  1  0  0  0  0
 10 29  1  0  0  0  0
 11 12  1  0  0  0  0
 11 30  1  0  0  0  0
 11 31  1  0  0  0  0
 12 32  1  0  0  0  0
 12 33  1  0  0  0  0
 13 20  1  0  0  0  0
 13 21  2  0  0  0  0
 14 16  1  0  0  0  0
 14 26  1  0  0  0  0
 14 34  1  0  0  0  0
 15 17  1  0  0  0  0
 15 27  1  0  0  0  0
 15 35  1  0  0  0  0
 16 36  1  0  0  0  0
 16 37  1  0  0  0  0
 17 38  1  0  0  0  0
 17 39  1  0  0  0  0
 18 21  1  0  0  0  0
 18 24  2  0  0  0  0
 19 23  2  0  0  0  0
 19 40  1  0  0  0  0
 20 22  2  0  0  0  0
 20 25  1  0  0  0  0
 22 24  1  0  0  0  0
 23 25  1  0  0  0  0
 23 28  1  0  0  0  0
 26 42  1  0  0  0  0
 26 43  1  0  0  0  0
 26 44  1  0  0  0  0
 27 45  1  0  0  0  0
 27 46  1  0  0  0  0
 27 47  1  0  0  0  0
M  END
> <PUBCHEM_COMPOUND_CID>
60464

> <PUBCHEM_CONFORMER_RMSD>
0.8

> <PUBCHEM_CONFORMER_DIVERSEORDER>
1
4
6
2
3
5
7

> <PUBCHEM_MMFF94_PARTIAL_CHARGES>
36
1 -0.19
10 0.07
11 -0.2
12 -0.2
13 0.1
14 0.27
15 0.27
16 0.37
17 0.37
18 0.1
19 -0.05
2 -0.19
20 0.09
21 0.19
22 0.1
23 0.03
24 0.19
25 0.47
28 0.71
29 0.1
3 -0.57
30 0.1
31 0.1
32 0.1
33 0.1
4 -0.65
40 0.15
41 0.36
48 0.4
49 0.4
5 -0.57
50 0.5
6 -0.37
7 -0.84
8 -0.9
9 -0.9

> <PUBCHEM_EFFECTIVE_ROTOR_COUNT>
4.8

> <PUBCHEM_PHARMACOPHORE_FEATURES>
13
1 3 acceptor
1 4 acceptor
1 5 acceptor
1 6 cation
1 7 cation
1 8 cation
1 8 donor
1 9 cation
1 9 donor
3 4 5 28 anion
6 13 18 20 21 22 24 rings
6 6 13 19 20 23 25 rings
6 7 8 14 15 16 17 rings

> <PUBCHEM_HEAVY_ATOM_COUNT>
28

> <PUBCHEM_ATOM_DEF_STEREO_COUNT>
2

> <PUBCHEM_ATOM_UDEF_STEREO_COUNT>
0

> <PUBCHEM_BOND_DEF_STEREO_COUNT>
0

> <PUBCHEM_BOND_UDEF_STEREO_COUNT>
0

> <PUBCHEM_ISOTOPIC_ATOM_COUNT>
0

> <PUBCHEM_COMPONENT_COUNT>
1

> <PUBCHEM_CACTVS_TAUTO_COUNT>
3

> <PUBCHEM_CONFORMER_ID>
0000EC3000000001

> <PUBCHEM_MMFF94_ENERGY>
101.4976

> <PUBCHEM_FEATURE_SELFOVERLAP>
66.063

> <PUBCHEM_SHAPE_FINGERPRINT>
10319926 262 18268124597001793848
10411042 1 17688024632297875755
10498660 4 18335422348698499528
10693767 8 17986094233332604039
10906281 52 18342189868316023769
10967382 1 18336822001257235027
1100329 8 18336542841194368729
11112241 14 16986854973406046640
11578080 2 17129287934276475667
12011746 2 18409167676000049205
12035758 1 18337117847257731073
12236239 1 17240201028231711544
12788726 201 18200872864091665144
12838862 33 18263902441796147617
12969540 114 18335687313799767415
13140716 1 18191302887130171593
13402501 40 18342463612214445462
13533116 47 17346599647285756672
13544592 145 18271812298049027870
13583140 156 17202481289476518314
138480 1 17401479356647145203
140371 6 18271815648213794016
14790565 3 18266462014407669849
15042514 8 18263647436824052363
15099037 51 18410013234627571239
15131766 46 14997431597855801990
15196674 1 18335978658490238433
17980427 23 17677891426204331684
19141452 34 18340770437448415891
19319366 153 17603581915671573290
19591789 44 18122060905704859571
20028762 73 18272366517057097615
20642791 13 18122614217999666498
20645477 70 17346604037148560974
21033648 29 18341879784768214833
21267235 1 18408892836964251001
21279426 13 18268147565648524693
21307412 95 18057905583514723742
21344244 181 18059860524053163455
22122407 14 15141261883349245669
22182313 1 18270409398584901878
23227448 37 18338513148423777471
23557571 272 18340208608819198954
23558518 356 17681834351414245537
23559900 14 18341900688795341958
23569914 152 16831485884461902189
3004659 81 18042126458354268898
3178227 256 18334587850054974193
335352 9 18408882957769174621
34934 24 18335412491463939818
350125 39 18265052612747621115
3633792 109 18342452617879155473
5104073 3 18262797341909453329
58260988 647 17059509412873386590
59755656 215 18409731724948289558
9709674 26 18342458175133618302

> <PUBCHEM_SHAPE_MULTIPOLES>
524.15
11.62
3.68
1.08
2.94
2.22
0.3
-2.96
1.83
-2.18
0.34
1.34
0.28
2.14

> <PUBCHEM_SHAPE_SELFOVERLAP>
1142.816

> <PUBCHEM_SHAPE_VOLUME>
284.5

> <PUBCHEM_COORDINATE_TYPE>
2
5
10

$$$$
