98
	Energy:     205.2367798
N          2.38027       -3.50803       -6.35548
C          1.11960       -4.22951       -6.12987
C          1.36161       -5.49685       -5.27607
O          0.26356       -6.37728       -5.38347
C          1.64620       -5.08929       -3.79960
C          1.86937       -6.32105       -2.91454
O          2.15398       -5.90996       -1.60590
O          0.55959       -4.33360       -3.28332
C          0.44358       -3.08875       -3.96447
O         -0.57454       -2.31121       -3.36345
C         -0.24761       -1.94221       -2.03093
C         -1.11610       -2.74971       -1.02754
N         -2.55083       -2.68004       -1.33687
C         -0.83995       -2.27893        0.41607
C         -1.06098       -0.75563        0.57928
N         -0.79669       -0.33630        1.95758
C         -0.16514        0.03228       -0.40748
O          1.20443       -0.20610       -0.10004
C          1.91567        1.00016        0.10418
O          1.49215        1.60091        1.32154
C          2.07793        2.88621        1.46982
C          1.43137        3.60247        2.66672
N         -0.00264        3.74051        2.47675
C         -0.79941        4.33114        3.40665
O         -0.31686        4.77337        4.44142
C         -2.28535        4.42904        3.15075
C         -3.05467        5.10906        4.29303
C         -4.55532        5.16911        3.98290
C         -5.32850        5.84083        5.12723
C         -6.84387        5.87955        4.85512
S         -7.30231        6.87339        3.39273
C         -9.02133        6.60517        3.92899
C         -9.04786        6.87915        5.43187
N         -9.09275        8.30305        5.67845
C         -7.98081        8.69028        6.30675
O         -7.76306        9.84546        6.63646
N         -7.12456        7.68991        6.52595
C         -7.67442        6.44859        6.01963
C          3.61638        2.75200        1.64111
O          3.98326        2.08797        2.83056
C          4.17861        2.01956        0.40923
C          3.43097        0.69285        0.16247
N          3.72690       -0.27704        1.22009
C         -0.45458       -0.41476       -1.86154
O          0.33601        0.30877       -2.77282
C          0.06128       -3.32710       -5.44663
O         -1.19643       -3.95135       -5.51711
H          2.21030       -2.69458       -6.99064
H          2.81722       -3.15417       -5.47828
H          0.75639       -4.53450       -7.13692
H          2.24068       -6.04339       -5.68234
H         -0.42775       -6.13184       -4.71713
H          2.58748       -4.49873       -3.73298
H          0.95539       -6.95557       -2.91185
H          2.72912       -6.90367       -3.31563
H          2.29557       -6.74009       -1.08080
H          1.39770       -2.51347       -3.92317
H          0.82199       -2.14590       -1.77480
H         -0.82759       -3.82206       -1.09003
H         -2.91673       -1.70425       -1.34726
H         -2.73457       -3.11274       -2.27091
H         -1.48953       -2.84360        1.11965
H          0.21711       -2.51613        0.66991
H         -2.12190       -0.51342        0.35557
H         -1.46976       -0.81349        2.60043
H          0.17268       -0.60720        2.24257
H         -0.45019        1.10993       -0.31815
H          1.73980        1.67973       -0.76686
H          1.86035        3.51477        0.57323
H          1.61781        3.02099        3.59565
H          1.88507        4.61185        2.77862
H         -0.43880        3.37577        1.61495
H         -2.44265        5.00339        2.21196
H         -2.68173        3.39987        3.00946
H         -2.89858        4.53389        5.23254
H         -2.66671        6.14223        4.43372
H         -4.70718        5.73980        3.04137
H         -4.93997        4.13515        3.84009
H         -5.15456        5.26085        6.06027
H         -4.94015        6.87209        5.26881
H         -7.18304        4.83647        4.65998
H         -9.76109        7.23083        3.38604
H         -9.26076        5.53838        3.72569
H         -9.92102        6.40264        5.92763
H         -9.86550        8.92986        5.40855
H         -6.21239        7.79499        6.99421
H         -7.75831        5.72725        6.86131
H          4.06271        3.76904        1.68814
H          3.30372        1.40103        3.05111
H          4.01341        2.67026       -0.47871
H          5.27444        1.85994        0.50346
H          3.76375        0.26526       -0.81060
H          3.25410       -1.18479        1.00594
H          4.75607       -0.46311        1.23519
H         -1.51177       -0.17188       -2.09581
H          1.27739        0.01196       -2.66750
H          0.01230       -2.36067       -6.00222
H         -1.88351       -3.23807       -5.44566
