5479537
  -OEChem-10202403033D

 56 59  0     1  0  0  0  0  0999 V2000
   -0.6787    0.5559   -1.8131 S   0  0  0  0  0  0  0  0  0  0  0  0
    4.0175   -3.3202    0.9038 S   0  0  0  0  0  0  0  0  0  0  0  0
    0.4662    1.3076    2.6313 O   0  0  0  0  0  0  0  0  0  0  0  0
   -1.8755   -1.2293    2.7547 O   0  5  0  0  0  0  0  0  0  0  0  0
   -3.2148    0.6124    2.9744 O   0  0  0  0  0  0  0  0  0  0  0  0
    3.3960    1.8233    1.4181 O   0  0  0  0  0  0  0  0  0  0  0  0
    4.6623    2.3569   -1.3682 O   0  0  0  0  0  0  0  0  0  0  0  0
   -5.2799   -0.2863   -0.5523 N   0  3  0  0  0  0  0  0  0  0  0  0
   -0.9642    1.0462    0.7777 N   0  0  0  0  0  0  0  0  0  0  0  0
    1.8930    1.2956   -0.3060 N   0  0  0  0  0  0  0  0  0  0  0  0
    4.9368    0.9922   -1.2032 N   0  0  0  0  0  0  0  0  0  0  0  0
    5.2740   -1.7238   -0.6946 N   0  0  0  0  0  0  0  0  0  0  0  0
    6.0295   -3.9642   -0.7113 N   0  0  0  0  0  0  0  0  0  0  0  0
   -6.5715   -0.9733   -0.0634 C   0  0  0  0  0  0  0  0  0  0  0  0
   -5.3011   -0.3995   -2.0905 C   0  0  0  0  0  0  0  0  0  0  0  0
   -4.0546   -0.9886    0.0125 C   0  0  0  0  0  0  0  0  0  0  0  0
   -7.0833   -1.7321   -1.2718 C   0  0  0  0  0  0  0  0  0  0  0  0
   -6.7175   -0.8239   -2.4250 C   0  0  0  0  0  0  0  0  0  0  0  0
   -5.2628    1.1730   -0.1239 C   0  0  0  0  0  0  0  0  0  0  0  0
   -2.8057   -0.1449   -0.0938 C   0  0  0  0  0  0  0  0  0  0  0  0
   -0.6498    1.7454   -0.4530 C   0  0  1  0  0  0  0  0  0  0  0  0
    0.7297    2.0361    0.1802 C   0  0  1  0  0  0  0  0  0  0  0  0
   -2.0628    0.2698    0.9583 C   0  0  0  0  0  0  0  0  0  0  0  0
   -2.4344    0.1291   -1.5489 C   0  0  0  0  0  0  0  0  0  0  0  0
    0.1153    1.4442    1.4828 C   0  0  0  0  0  0  0  0  0  0  0  0
   -2.4216   -0.1603    2.3762 C   0  0  0  0  0  0  0  0  0  0  0  0
    3.1007    1.2721    0.3701 C   0  0  0  0  0  0  0  0  0  0  0  0
    4.1498    0.4447   -0.3266 C   0  0  0  0  0  0  0  0  0  0  0  0
    4.3050   -0.9857   -0.0434 C   0  0  0  0  0  0  0  0  0  0  0  0
    3.5258   -1.6778    0.8599 C   0  0  0  0  0  0  0  0  0  0  0  0
    5.2146   -2.9679   -0.2741 C   0  0  0  0  0  0  0  0  0  0  0  0
    5.5618    2.8733   -2.3370 C   0  0  0  0  0  0  0  0  0  0  0  0
   -7.2812   -0.1944    0.2369 H   0  0  0  0  0  0  0  0  0  0  0  0
   -6.3602   -1.6212    0.7922 H   0  0  0  0  0  0  0  0  0  0  0  0
   -4.6179   -1.1918   -2.4067 H   0  0  0  0  0  0  0  0  0  0  0  0
   -5.0449    0.5582   -2.5508 H   0  0  0  0  0  0  0  0  0  0  0  0
   -4.2845   -1.2117    1.0592 H   0  0  0  0  0  0  0  0  0  0  0  0
   -3.9392   -1.9535   -0.4958 H   0  0  0  0  0  0  0  0  0  0  0  0
   -6.5696   -2.6964   -1.3636 H   0  0  0  0  0  0  0  0  0  0  0  0
   -8.1586   -1.9229   -1.2139 H   0  0  0  0  0  0  0  0  0  0  0  0
   -7.3818    0.0480   -2.4526 H   0  0  0  0  0  0  0  0  0  0  0  0
   -6.7802   -1.3295   -3.3928 H   0  0  0  0  0  0  0  0  0  0  0  0
   -5.2182    1.2125    0.9685 H   0  0  0  0  0  0  0  0  0  0  0  0
   -4.4342    1.7181   -0.5767 H   0  0  0  0  0  0  0  0  0  0  0  0
   -6.1959    1.6331   -0.4667 H   0  0  0  0  0  0  0  0  0  0  0  0
   -1.2663    2.6392   -0.6052 H   0  0  0  0  0  0  0  0  0  0  0  0
    0.9470    3.1078    0.2611 H   0  0  0  0  0  0  0  0  0  0  0  0
   -3.0108    0.9515   -1.9720 H   0  0  0  0  0  0  0  0  0  0  0  0
   -2.5764   -0.7699   -2.1533 H   0  0  0  0  0  0  0  0  0  0  0  0
    1.8284    0.7743   -1.1772 H   0  0  0  0  0  0  0  0  0  0  0  0
    2.7156   -1.3228    1.4813 H   0  0  0  0  0  0  0  0  0  0  0  0
    6.5955    2.7581   -1.9964 H   0  0  0  0  0  0  0  0  0  0  0  0
    5.4217    2.3646   -3.2958 H   0  0  0  0  0  0  0  0  0  0  0  0
    5.3530    3.9379   -2.4709 H   0  0  0  0  0  0  0  0  0  0  0  0
    5.9495   -4.9130   -0.3604 H   0  0  0  0  0  0  0  0  0  0  0  0
    6.7495   -3.7992   -1.4069 H   0  0  0  0  0  0  0  0  0  0  0  0
  1 21  1  0  0  0  0
  1 24  1  0  0  0  0
  2 30  1  0  0  0  0
  2 31  1  0  0  0  0
  3 25  2  0  0  0  0
  4 26  1  0  0  0  0
  5 26  2  0  0  0  0
  6 27  2  0  0  0  0
  7 11  1  0  0  0  0
  7 32  1  0  0  0  0
  8 14  1  0  0  0  0
  8 15  1  0  0  0  0
  8 16  1  0  0  0  0
  8 19  1  0  0  0  0
  9 21  1  0  0  0  0
  9 23  1  0  0  0  0
  9 25  1  0  0  0  0
 10 22  1  0  0  0  0
 10 27  1  0  0  0  0
 10 50  1  0  0  0  0
 11 28  2  0  0  0  0
 12 29  1  0  0  0  0
 12 31  2  0  0  0  0
 13 31  1  0  0  0  0
 13 55  1  0  0  0  0
 13 56  1  0  0  0  0
 14 17  1  0  0  0  0
 14 33  1  0  0  0  0
 14 34  1  0  0  0  0
 15 18  1  0  0  0  0
 15 35  1  0  0  0  0
 15 36  1  0  0  0  0
 16 20  1  0  0  0  0
 16 37  1  0  0  0  0
 16 38  1  0  0  0  0
 17 18  1  0  0  0  0
 17 39  1  0  0  0  0
 17 40  1  0  0  0  0
 18 41  1  0  0  0  0
 18 42  1  0  0  0  0
 19 43  1  0  0  0  0
 19 44  1  0  0  0  0
 19 45  1  0  0  0  0
 20 23  2  0  0  0  0
 20 24  1  0  0  0  0
 21 22  1  0  0  0  0
 21 46  1  0  0  0  0
 22 25  1  0  0  0  0
 22 47  1  0  0  0  0
 23 26  1  0  0  0  0
 24 48  1  0  0  0  0
 24 49  1  0  0  0  0
 27 28  1  0  0  0  0
 28 29  1  0  0  0  0
 29 30  2  0  0  0  0
 30 51  1  0  0  0  0
 32 52  1  0  0  0  0
 32 53  1  0  0  0  0
 32 54  1  0  0  0  0
M  CHG  2   4  -1   8   1
M  END
> <PUBCHEM_COMPOUND_CID>
5479537

> <PUBCHEM_CONFORMER_RMSD>
1

> <PUBCHEM_CONFORMER_DIVERSEORDER>
1
80
88
40
81
79
12
84
73
35
70
33
85
31
63
77
86
42
16
57
44
91
65
46
72
6
69
89
29
74
9
45
55
43
83
17
52
58
51
24
39
8
71
48
50
32
87
34
15
62
66
59
25
54
53
47
18
68
41
30
19
20
11
22
60
82
28
38
5
23
76
75
10
49
64
2
37
21
27
36
78
61
67
26
3
4
56
90
7
14
13

> <PUBCHEM_MMFF94_PARTIAL_CHARGES>
34
1 -0.45
10 -0.65
11 -0.51
12 -0.57
13 -0.88
14 0.5
15 0.5
16 0.64
19 0.5
2 -0.08
20 -0.28
21 0.44
22 0.28
23 -0.14
24 0.37
25 0.58
26 1.05
27 0.63
28 0.54
29 0.14
3 -0.57
30 -0.11
31 0.46
32 0.28
4 -0.9
5 -0.9
50 0.37
51 0.15
55 0.4
56 0.4
6 -0.57
7 -0.22
8 -1.01
9 -0.39

> <PUBCHEM_EFFECTIVE_ROTOR_COUNT>
9.6

> <PUBCHEM_PHARMACOPHORE_FEATURES>
14
1 10 donor
1 11 acceptor
1 13 donor
1 3 acceptor
1 4 acceptor
1 5 acceptor
1 6 acceptor
1 8 cation
3 12 13 31 cation
3 4 5 26 anion
4 9 21 22 25 rings
5 2 12 29 30 31 rings
5 8 14 15 17 18 rings
6 1 9 20 21 23 24 rings

> <PUBCHEM_HEAVY_ATOM_COUNT>
32

> <PUBCHEM_ATOM_DEF_STEREO_COUNT>
2

> <PUBCHEM_ATOM_UDEF_STEREO_COUNT>
0

> <PUBCHEM_BOND_DEF_STEREO_COUNT>
1

> <PUBCHEM_BOND_UDEF_STEREO_COUNT>
0

> <PUBCHEM_ISOTOPIC_ATOM_COUNT>
0

> <PUBCHEM_COMPONENT_COUNT>
1

> <PUBCHEM_CACTVS_TAUTO_COUNT>
4

> <PUBCHEM_CONFORMER_ID>
00539C7100000001

> <PUBCHEM_MMFF94_ENERGY>
82.9844

> <PUBCHEM_FEATURE_SELFOVERLAP>
71.364

> <PUBCHEM_SHAPE_FINGERPRINT>
10319926 262 14979688653836728249
10622 236 18196648497863844962
11135926 11 18191327020984157860
117089 54 17914062988935420094
12166972 35 17274265079634903273
12925494 130 11311240667462901779
13533116 47 18342172280271660526
1361 2 18335976523702042907
1361 4 18200302364245412591
13782708 43 17988629844779627343
13911987 19 17899721208602583564
14068700 675 18267858377274462954
14790565 3 15864890077240847149
14931854 50 17677617449961704730
15183329 4 18113893854083206685
15475509 8 17603863352557820709
16728300 4 17703504390374955063
17349148 13 17274827986574958309
19315092 285 17774997969259820314
19841028 212 18342734083807235942
19958102 18 17240761748822766959
20028762 73 17917146096579810334
21344244 181 18113334219919041131
21641784 216 15430585161564162661
21792934 111 13542475285045724779
23522609 53 18128001700533195337
23559900 14 17168159926852408702
23569943 247 18265048042771095467
24771750 20 16882747792103006757
3004659 81 18409163277858884714
345986 75 17561079189871690960
34797466 226 17531242894117508133
3729539 64 18188483576150696179
3882209 13 16956167307586145418
3886686 26 15837077775438384807
397830 11 10087349097718463101
4015057 19 18261117378415658473
46194498 28 17895187805916733348
474113 269 17560789993182189783
58260988 647 18409167693138058179
59682541 52 18335692862871191877
960060 61 18335421279104112140

> <PUBCHEM_SHAPE_MULTIPOLES>
607.01
17.43
3.26
2.5
9.04
1.85
1.09
9.07
-10.93
-8.43
-0.87
2.08
-0.46
-1.44

> <PUBCHEM_SHAPE_SELFOVERLAP>
1262.164

> <PUBCHEM_SHAPE_VOLUME>
349.4

> <PUBCHEM_COORDINATE_TYPE>
2
5
10

$$$$
