9835049
  -OEChem-10202402543D

 28 29  0     1  0  0  0  0  0999 V2000
    3.3839    0.0601    0.1013 S   0  0  0  0  0  0  0  0  0  0  0  0
    2.0026   -0.5488   -0.5460 O   0  0  0  0  0  0  0  0  0  0  0  0
    0.4732    1.9318   -0.8102 O   0  0  0  0  0  0  0  0  0  0  0  0
   -4.1551   -0.8294   -0.1319 O   0  0  0  0  0  0  0  0  0  0  0  0
    4.5588   -0.6286   -0.7953 O   0  0  0  0  0  0  0  0  0  0  0  0
    3.5117   -0.4465    1.4551 O   0  0  0  0  0  0  0  0  0  0  0  0
    3.4133    1.4872   -0.1602 O   0  0  0  0  0  0  0  0  0  0  0  0
   -1.1815    0.6976    0.4416 N   0  0  0  0  0  0  0  0  0  0  0  0
    0.8752   -0.1818    0.1738 N   0  0  0  0  0  0  0  0  0  0  0  0
   -3.9499    1.3342    0.6235 N   0  0  0  0  0  0  0  0  0  0  0  0
   -0.0037   -1.2222    0.6870 C   0  0  1  0  0  0  0  0  0  0  0  0
   -0.9711   -0.3375    1.4527 C   0  0  0  0  0  0  0  0  0  0  0  0
   -0.8191   -1.9148   -0.4360 C   0  0  0  0  0  0  0  0  0  0  0  0
   -2.1314    0.3480   -0.6070 C   0  0  1  0  0  0  0  0  0  0  0  0
   -1.6546   -0.9418   -1.3218 C   0  0  0  0  0  0  0  0  0  0  0  0
    0.1495    0.9874   -0.1060 C   0  0  0  0  0  0  0  0  0  0  0  0
   -3.5020    0.2052   -0.0206 C   0  0  0  0  0  0  0  0  0  0  0  0
    0.5444   -1.9310    1.3126 H   0  0  0  0  0  0  0  0  0  0  0  0
   -1.8972   -0.8247    1.7689 H   0  0  0  0  0  0  0  0  0  0  0  0
   -0.4913    0.1282    2.3226 H   0  0  0  0  0  0  0  0  0  0  0  0
   -1.5077   -2.6311    0.0297 H   0  0  0  0  0  0  0  0  0  0  0  0
   -0.1483   -2.4929   -1.0825 H   0  0  0  0  0  0  0  0  0  0  0  0
   -2.1648    1.1657   -1.3387 H   0  0  0  0  0  0  0  0  0  0  0  0
   -0.9937   -0.6292   -2.1432 H   0  0  0  0  0  0  0  0  0  0  0  0
   -2.4747   -1.4835   -1.8063 H   0  0  0  0  0  0  0  0  0  0  0  0
   -4.8671    1.3603    1.0565 H   0  0  0  0  0  0  0  0  0  0  0  0
   -3.3854    2.1746    0.6963 H   0  0  0  0  0  0  0  0  0  0  0  0
    4.4194   -0.5949   -1.7708 H   0  0  0  0  0  0  0  0  0  0  0  0
  1  2  1  0  0  0  0
  1  5  1  0  0  0  0
  1  6  2  0  0  0  0
  1  7  2  0  0  0  0
  2  9  1  0  0  0  0
  3 16  2  0  0  0  0
  4 17  2  0  0  0  0
  5 28  1  0  0  0  0
  8 12  1  0  0  0  0
  8 14  1  0  0  0  0
  8 16  1  0  0  0  0
  9 11  1  0  0  0  0
  9 16  1  0  0  0  0
 10 17  1  0  0  0  0
 10 26  1  0  0  0  0
 10 27  1  0  0  0  0
 11 12  1  0  0  0  0
 11 13  1  0  0  0  0
 11 18  1  0  0  0  0
 12 19  1  0  0  0  0
 12 20  1  0  0  0  0
 13 15  1  0  0  0  0
 13 21  1  0  0  0  0
 13 22  1  0  0  0  0
 14 15  1  0  0  0  0
 14 17  1  0  0  0  0
 14 23  1  0  0  0  0
 15 24  1  0  0  0  0
 15 25  1  0  0  0  0
M  END
> <PUBCHEM_COMPOUND_CID>
9835049

> <PUBCHEM_CONFORMER_RMSD>
0.6

> <PUBCHEM_CONFORMER_DIVERSEORDER>
1
5
6
2
3
4

> <PUBCHEM_MMFF94_PARTIAL_CHARGES>
18
1 1.67
10 -0.8
11 0.3
12 0.3
14 0.36
16 0.69
17 0.57
2 -0.22
26 0.37
27 0.37
28 0.5
3 -0.57
4 -0.57
5 -0.68
6 -0.65
7 -0.65
8 -0.66
9 -0.32

> <PUBCHEM_EFFECTIVE_ROTOR_COUNT>
4

> <PUBCHEM_PHARMACOPHORE_FEATURES>
8
1 10 donor
1 3 acceptor
1 4 acceptor
1 5 acceptor
1 6 acceptor
1 7 acceptor
4 1 5 6 7 anion
8 8 9 11 12 13 14 15 16 rings

> <PUBCHEM_HEAVY_ATOM_COUNT>
17

> <PUBCHEM_ATOM_DEF_STEREO_COUNT>
2

> <PUBCHEM_ATOM_UDEF_STEREO_COUNT>
0

> <PUBCHEM_BOND_DEF_STEREO_COUNT>
0

> <PUBCHEM_BOND_UDEF_STEREO_COUNT>
0

> <PUBCHEM_ISOTOPIC_ATOM_COUNT>
0

> <PUBCHEM_COMPONENT_COUNT>
1

> <PUBCHEM_CACTVS_TAUTO_COUNT>
2

> <PUBCHEM_CONFORMER_ID>
0096122900000001

> <PUBCHEM_MMFF94_ENERGY>
68.7144

> <PUBCHEM_FEATURE_SELFOVERLAP>
40.657

> <PUBCHEM_SHAPE_FINGERPRINT>
11132069 177 18272921731056292056
12592029 89 18412266103735600331
13024252 1 16588025718647754111
13581323 91 17917710240438141357
14943859 89 18260545640948248963
14993402 34 18409445890727375455
16945 1 17845919788949841895
18186145 218 18260542329523156652
19026448 4 16917343740491016595
200 152 11887956540574721774
20671657 1 17970922273637665653
21501502 16 17972883836682658165
23402539 116 18343294847289104508
23559900 14 17203607086726268706
296302 2 15482382148946546490
528886 8 18411694383495461419
69090 78 18343299283879674807

> <PUBCHEM_SHAPE_MULTIPOLES>
303.54
7.05
1.55
1.12
2.91
0.08
0.17
0.6
-0.03
-0.22
-0.23
0.1
-0.16
-0.38

> <PUBCHEM_SHAPE_SELFOVERLAP>
625.799

> <PUBCHEM_SHAPE_VOLUME>
175.7

> <PUBCHEM_COORDINATE_TYPE>
2
5
10

$$$$
