5479530
  -OEChem-10202403003D

 54 57  0     1  0  0  0  0  0999 V2000
   -0.7324    1.0326    2.2326 S   0  0  0  0  0  0  0  0  0  0  0  0
    3.2959   -0.7458    0.3114 S   0  0  0  0  0  0  0  0  0  0  0  0
   -3.7694   -3.5773   -1.5035 S   0  0  0  0  0  0  0  0  0  0  0  0
   -1.8066    2.1402   -2.1529 O   0  0  0  0  0  0  0  0  0  0  0  0
    1.2854    2.8401   -2.3046 O   0  0  0  0  0  0  0  0  0  0  0  0
    1.7637    0.6038   -2.2823 O   0  0  0  0  0  0  0  0  0  0  0  0
   -4.8026    1.5169   -1.2048 O   0  0  0  0  0  0  0  0  0  0  0  0
   -6.3310    1.1527    1.4754 O   0  0  0  0  0  0  0  0  0  0  0  0
    7.6497   -1.1975    2.4655 O   0  0  0  0  0  0  0  0  0  0  0  0
    9.0038   -1.2353    0.2247 O   0  0  0  0  0  0  0  0  0  0  0  0
   -0.4663    2.0233   -0.2162 N   0  0  0  0  0  0  0  0  0  0  0  0
   -3.3116    1.1909    0.5787 N   0  0  0  0  0  0  0  0  0  0  0  0
    5.7025   -0.6546   -0.9552 N   0  0  0  0  0  0  0  0  0  0  0  0
   -6.1432   -0.1814    1.0877 N   0  0  0  0  0  0  0  0  0  0  0  0
    5.6218   -1.0374    1.4149 N   0  0  0  0  0  0  0  0  0  0  0  0
    7.0735   -0.8465   -0.9845 N   0  0  0  0  0  0  0  0  0  0  0  0
   -5.5613   -2.7412    0.1615 N   0  0  0  0  0  0  0  0  0  0  0  0
   -5.5578   -5.0737   -0.2251 N   0  0  0  0  0  0  0  0  0  0  0  0
   -1.0608    2.3698    1.0620 C   0  0  1  0  0  0  0  0  0  0  0  0
   -2.4214    2.3249    0.3326 C   0  0  1  0  0  0  0  0  0  0  0  0
   -1.5781    2.1827   -0.9667 C   0  0  0  0  0  0  0  0  0  0  0  0
    0.8364    1.6740   -0.3728 C   0  0  0  0  0  0  0  0  0  0  0  0
    1.6108    1.3380    0.6863 C   0  0  0  0  0  0  0  0  0  0  0  0
    1.0787    1.2227    2.1130 C   0  0  0  0  0  0  0  0  0  0  0  0
    3.0840    1.0180    0.6037 C   0  0  0  0  0  0  0  0  0  0  0  0
    1.3501    1.6139   -1.7495 C   0  0  0  0  0  0  0  0  0  0  0  0
   -4.4067    0.9130   -0.2208 C   0  0  0  0  0  0  0  0  0  0  0  0
   -5.1732   -0.3026    0.2323 C   0  0  0  0  0  0  0  0  0  0  0  0
    5.0682   -0.8235    0.2621 C   0  0  0  0  0  0  0  0  0  0  0  0
   -4.8446   -1.6414   -0.2682 C   0  0  0  0  0  0  0  0  0  0  0  0
   -3.8340   -1.8959   -1.1716 C   0  0  0  0  0  0  0  0  0  0  0  0
    5.0755   -0.4143   -2.2419 C   0  0  0  0  0  0  0  0  0  0  0  0
    6.9915   -1.1012    1.4341 C   0  0  0  0  0  0  0  0  0  0  0  0
    7.7943   -1.0663    0.1611 C   0  0  0  0  0  0  0  0  0  0  0  0
   -5.0819   -3.8160   -0.4241 C   0  0  0  0  0  0  0  0  0  0  0  0
   -7.4027    1.1946    2.4049 C   0  0  0  0  0  0  0  0  0  0  0  0
   -0.7752    3.3702    1.4082 H   0  0  0  0  0  0  0  0  0  0  0  0
   -2.9664    3.2750    0.3836 H   0  0  0  0  0  0  0  0  0  0  0  0
    1.5076    0.3463    2.6097 H   0  0  0  0  0  0  0  0  0  0  0  0
    1.3798    2.1079    2.6839 H   0  0  0  0  0  0  0  0  0  0  0  0
   -3.1333    0.5744    1.3680 H   0  0  0  0  0  0  0  0  0  0  0  0
    3.5946    1.3126    1.5276 H   0  0  0  0  0  0  0  0  0  0  0  0
    3.5600    1.5847   -0.2034 H   0  0  0  0  0  0  0  0  0  0  0  0
    1.6198    2.8459   -3.2268 H   0  0  0  0  0  0  0  0  0  0  0  0
   -3.1463   -1.2087   -1.6441 H   0  0  0  0  0  0  0  0  0  0  0  0
    7.5153   -0.8095   -1.8967 H   0  0  0  0  0  0  0  0  0  0  0  0
    4.5262    0.5317   -2.2291 H   0  0  0  0  0  0  0  0  0  0  0  0
    4.3863   -1.2266   -2.4942 H   0  0  0  0  0  0  0  0  0  0  0  0
    5.8069   -0.3450   -3.0552 H   0  0  0  0  0  0  0  0  0  0  0  0
   -8.3233    0.8267    1.9413 H   0  0  0  0  0  0  0  0  0  0  0  0
   -7.1620    0.5983    3.2905 H   0  0  0  0  0  0  0  0  0  0  0  0
   -7.5548    2.2328    2.7116 H   0  0  0  0  0  0  0  0  0  0  0  0
   -6.3320   -5.2588    0.4041 H   0  0  0  0  0  0  0  0  0  0  0  0
   -5.1582   -5.8775   -0.6983 H   0  0  0  0  0  0  0  0  0  0  0  0
  1 19  1  0  0  0  0
  1 24  1  0  0  0  0
  2 25  1  0  0  0  0
  2 29  1  0  0  0  0
  3 31  1  0  0  0  0
  3 35  1  0  0  0  0
  4 21  2  0  0  0  0
  5 26  1  0  0  0  0
  5 44  1  0  0  0  0
  6 26  2  0  0  0  0
  7 27  2  0  0  0  0
  8 14  1  0  0  0  0
  8 36  1  0  0  0  0
  9 33  2  0  0  0  0
 10 34  2  0  0  0  0
 11 19  1  0  0  0  0
 11 21  1  0  0  0  0
 11 22  1  0  0  0  0
 12 20  1  0  0  0  0
 12 27  1  0  0  0  0
 12 41  1  0  0  0  0
 13 16  1  0  0  0  0
 13 29  1  0  0  0  0
 13 32  1  0  0  0  0
 14 28  2  0  0  0  0
 15 29  2  0  0  0  0
 15 33  1  0  0  0  0
 16 34  1  0  0  0  0
 16 46  1  0  0  0  0
 17 30  1  0  0  0  0
 17 35  2  0  0  0  0
 18 35  1  0  0  0  0
 18 53  1  0  0  0  0
 18 54  1  0  0  0  0
 19 20  1  0  0  0  0
 19 37  1  0  0  0  0
 20 21  1  0  0  0  0
 20 38  1  0  0  0  0
 22 23  2  0  0  0  0
 22 26  1  0  0  0  0
 23 24  1  0  0  0  0
 23 25  1  0  0  0  0
 24 39  1  0  0  0  0
 24 40  1  0  0  0  0
 25 42  1  0  0  0  0
 25 43  1  0  0  0  0
 27 28  1  0  0  0  0
 28 30  1  0  0  0  0
 30 31  2  0  0  0  0
 31 45  1  0  0  0  0
 32 47  1  0  0  0  0
 32 48  1  0  0  0  0
 32 49  1  0  0  0  0
 33 34  1  0  0  0  0
 36 50  1  0  0  0  0
 36 51  1  0  0  0  0
 36 52  1  0  0  0  0
M  END
> <PUBCHEM_COMPOUND_CID>
5479530

> <PUBCHEM_CONFORMER_RMSD>
1

> <PUBCHEM_CONFORMER_DIVERSEORDER>
1
39
20
169
49
112
74
53
165
114
190
58
76
102
88
144
175
158
96
166
98
174
155
141
84
75
107
80
184
167
171
50
100
164
32
104
189
81
140
163
113
17
77
111
193
181
67
65
134
187
185
11
66
147
78
99
71
127
168
70
48
68
162
85
62
56
192
170
92
110
177
45
191
61
157
51
180
188
159
172
128
116
31
121
97
173
133
87
152
186
42
83
143
130
154
151
178
138
156
101
23
120
108
195
94
41
25
89
132
148
63
160
35
126
64
136
28
90
196
47
129
57
82
124
86
52
24
161
12
183
34
139
145
146
16
91
93
137
118
194
115
13
69
117
43
33
72
6
22
149
14
119
131
182
36
27
37
135
21
103
55
73
142
29
18
2
179
123
122
38
4
54
40
30
46
44
95
109
150
8
176
59
153
3
125
105
106
5
15
10
60
26
19
7
79
9

> <PUBCHEM_MMFF94_PARTIAL_CHARGES>
42
1 -0.45
10 -0.57
11 -0.39
12 -0.65
13 -0.44
14 -0.51
15 -0.66
16 -0.41
17 -0.57
18 -0.88
19 0.44
2 -0.37
20 0.28
21 0.58
22 0.12
23 -0.28
24 0.37
25 0.37
26 0.71
27 0.63
28 0.54
29 0.64
3 -0.08
30 0.14
31 -0.11
32 0.37
33 0.78
34 0.63
35 0.46
36 0.28
4 -0.57
41 0.37
44 0.5
45 0.15
46 0.37
5 -0.65
53 0.4
54 0.4
6 -0.57
7 -0.57
8 -0.22
9 -0.57

> <PUBCHEM_EFFECTIVE_ROTOR_COUNT>
9.6

> <PUBCHEM_PHARMACOPHORE_FEATURES>
17
1 10 acceptor
1 12 donor
1 14 acceptor
1 15 donor
1 16 donor
1 18 donor
1 4 acceptor
1 5 acceptor
1 6 acceptor
1 7 acceptor
1 9 acceptor
3 17 18 35 cation
3 5 6 26 anion
4 11 19 20 21 rings
5 3 17 30 31 35 rings
6 1 11 19 22 23 24 rings
6 13 15 16 29 33 34 rings

> <PUBCHEM_HEAVY_ATOM_COUNT>
36

> <PUBCHEM_ATOM_DEF_STEREO_COUNT>
2

> <PUBCHEM_ATOM_UDEF_STEREO_COUNT>
0

> <PUBCHEM_BOND_DEF_STEREO_COUNT>
1

> <PUBCHEM_BOND_UDEF_STEREO_COUNT>
0

> <PUBCHEM_ISOTOPIC_ATOM_COUNT>
0

> <PUBCHEM_COMPONENT_COUNT>
1

> <PUBCHEM_CACTVS_TAUTO_COUNT>
8

> <PUBCHEM_CONFORMER_ID>
00539C6A00000001

> <PUBCHEM_MMFF94_ENERGY>
85.2106

> <PUBCHEM_FEATURE_SELFOVERLAP>
86.605

> <PUBCHEM_SHAPE_FINGERPRINT>
10042902 136 18337670918549000791
10190206 1 13118278132376457630
10391435 84 18342725326368114226
10670039 82 10737287956942266615
11135609 99 18343300396756038092
117089 54 18118970428213750171
12082328 90 16371008464559625929
12643181 29 18343581828830756315
12988421 55 12247688162423964225
13690498 29 17530677685127684717
13782708 43 18410003347860893144
14068700 675 18408603686411620272
14904525 67 8790300263491119154
15183329 4 16732697260040113138
15289351 153 9655580682785480044
15320294 125 18408893919375027231
15461852 350 18260832554403251510
15510800 12 18059572525084089287
18603816 31 18410859858807968843
19303781 99 18041558152017558075
19611394 137 17703785917138790144
20775438 99 17390226267036519248
21033648 29 14979414906371548001
21424621 283 10159701317722644332
22122407 14 10879694538456288822
2747138 104 17632573834889958768
2838139 119 7997963574993782274
397830 11 18129929179176676416
4015057 19 16443360766780499748
437795 139 18336829791932569950
445580 204 9295288343717242870
45377200 153 18411707548483632894
54039377 194 17967541172908973257
6009941 240 17703509900569861433
6371380 46 17988644048374262073
6608658 132 8430314581430080947
6691757 9 18272371920136297473
9953998 17 17989202625085020448
999808 66 17775565317285989236

> <PUBCHEM_SHAPE_MULTIPOLES>
671.48
22.13
4.1
2.29
27.08
4.67
0.19
16.94
-8.57
-9.02
0.79
1.19
-1.06
-2.12

> <PUBCHEM_SHAPE_SELFOVERLAP>
1399.254

> <PUBCHEM_SHAPE_VOLUME>
383.7

> <PUBCHEM_COORDINATE_TYPE>
2
5
10

$$$$
